Program Version,EnergyPlus, Version 8.9.0-40101eaafd, YMD=2025.03.17 15:10,
   ************* Beginning Zone Sizing Calculations
   ** Warning ** CheckUsedConstructions: There are 3 nominally unused constructions in input.
   **   ~~~   ** For explicit details on each unused construction, use Output:Diagnostics,DisplayExtraWarnings;
   ** Warning ** GetDXCoils: Coil:Cooling:DX:SingleSpeed="ZN_1_FLR_1_SEC_1 PTHP DX COIL" curve values
   **   ~~~   ** ... Total Cooling Capacity Function of Temperature Curve Name = ZN_1_FLR_1_SEC_1 PTHP_CLGCAPFUNCTEMPCURVE output is not equal to 1.0 (+ or - 10%) at rated conditions.
   **   ~~~   ** ... Curve output at rated conditions = 1.437
   ** Warning ** GetDXCoils: Coil:Cooling:DX:SingleSpeed="ZN_1_FLR_1_SEC_2 PTHP DX COIL" curve values
   **   ~~~   ** ... Total Cooling Capacity Function of Temperature Curve Name = ZN_1_FLR_1_SEC_2 PTHP_CLGCAPFUNCTEMPCURVE output is not equal to 1.0 (+ or - 10%) at rated conditions.
   **   ~~~   ** ... Curve output at rated conditions = 1.437
   ** Warning ** GetDXCoils: Coil:Cooling:DX:SingleSpeed="ZN_1_FLR_1_SEC_3 PTHP DX COIL" curve values
   **   ~~~   ** ... Total Cooling Capacity Function of Temperature Curve Name = ZN_1_FLR_1_SEC_3 PTHP_CLGCAPFUNCTEMPCURVE output is not equal to 1.0 (+ or - 10%) at rated conditions.
   **   ~~~   ** ... Curve output at rated conditions = 1.437
   ** Warning ** GetDXCoils: Coil:Cooling:DX:SingleSpeed="ZN_1_FLR_1_SEC_4 PTHP DX COIL" curve values
   **   ~~~   ** ... Total Cooling Capacity Function of Temperature Curve Name = ZN_1_FLR_1_SEC_4 PTHP_CLGCAPFUNCTEMPCURVE output is not equal to 1.0 (+ or - 10%) at rated conditions.
   **   ~~~   ** ... Curve output at rated conditions = 1.437
   ** Warning ** GetDXCoils: Coil:Cooling:DX:SingleSpeed="ZN_1_FLR_1_SEC_5 PTHP DX COIL" curve values
   **   ~~~   ** ... Total Cooling Capacity Function of Temperature Curve Name = ZN_1_FLR_1_SEC_5 PTHP_CLGCAPFUNCTEMPCURVE output is not equal to 1.0 (+ or - 10%) at rated conditions.
   **   ~~~   ** ... Curve output at rated conditions = 1.437
   ** Warning ** ManageSizing: For a plant sizing run, there must be at least 1 Sizing:Plant object input. SimulationControl Plant Sizing option ignored.
   ************* Testing Individual Branch Integrity
   ************* All Branches passed integrity testing
   ************* Testing Individual Supply Air Path Integrity
   ************* All Supply Air Paths passed integrity testing
   ************* Testing Individual Return Air Path Integrity
   ************* All Return Air Paths passed integrity testing
   ************* No node connection errors were found.
   ************* Beginning Simulation
   ** Warning ** Processing Monthly Tabular Reports: Variable names not valid for this simulation
   **   ~~~   ** ...use Output:Diagnostics,DisplayExtraWarnings; to show more details on individual variables.
   ** Warning ** CalcDoe2DXCoil: Coil:Cooling:DX:SingleSpeed="ZN_1_FLR_1_SEC_4 PTHP DX COIL" - Air volume flow rate per watt of rated total cooling capacity is out of range at 6.734E-005 m3/s/W.
   **   ~~~   **  Environment=FULLYEAR, at Simulation time=07/09 17:15 - 17:30
   **   ~~~   ** Expected range for VolumeFlowPerRatedTotalCapacity=[2.684E-005--6.713E-005]
   **   ~~~   ** Possible causes include inconsistent air flow rates in system components,
   **   ~~~   ** or variable air volume [VAV] system using incorrect coil type.
   ************* Simulation Error Summary *************
   ************* There are 15 unused schedules in input.
   ************* Use Output:Diagnostics,DisplayUnusedSchedules; to see them.
   *************
   ************* ===== Recurring Error Summary =====
   ************* The following recurring error messages occurred.
   *************
   *************  ** Warning ** CalcDoe2DXCoil: Coil:Cooling:DX:SingleSpeed="ZN_1_FLR_1_SEC_4 PTHP DX COIL" - Air volume flow rate per watt of rated total cooling capacity is out of range error continues...
   *************  **   ~~~   **   This error occurred 8 total times;
   *************  **   ~~~   **   during Warmup 0 times;
   *************  **   ~~~   **   during Sizing 0 times.
   *************  **   ~~~   **   Max=6.735723E-005  Min=6.734437E-005
   *************
   *************
   ************* ===== Final Error Summary =====
   ************* The following error categories occurred.  Consider correcting or noting.
   ************* Nominally Unused Constructions
   ************* ..The nominally unused constructions warning is provided to alert you to potential conditions that can cause
   ************* ..extra time during simulation. Each construction is calculated by the algorithm indicated in the HeatBalanceAlgorithm
   ************* ..object. You may remove the constructions indicated (when you use the DisplayExtraWarnings option).
   *************
   ************* EnergyPlus Warmup Error Summary. During Warmup: 0 Warning; 0 Severe Errors.
   ************* EnergyPlus Sizing Error Summary. During Sizing: 7 Warning; 0 Severe Errors.
   ************* EnergyPlus Completed Successfully-- 16 Warning; 0 Severe Errors; Elapsed Time=00hr 00min 23.79sec
